java/SFINA/configuration_files/experiment-01/output/time_10/iteration_1/flow/links.txt
id,current,real_power_from,reactive_power_from,real_power_to,reactive_power_to,resistance,reactance,susceptance,rateA,rateB,rateC,ratio,angle,angmin,angmax
1,52.94743624983349,11.236135758982169,-5.198734791044579,-11.208149481812397,2.2826936225538215,0.02,0.06,0.03,130.0,130.0,130.0,0.0,0.0,-360.0,360.0
2,66.63455652514364,15.016968846760959,4.15410882103231,-14.890931751219156,-5.64153828198425,0.05,0.19,0.02,130.0,130.0,130.0,0.0,0.0,-360.0,360.0
3,71.60775367576245,15.869478432764383,5.339946877385024,-15.694257269482756,-6.80383683588579,0.06,0.17,0.02,65.0,65.0,65.0,0.0,0.0,-360.0,360.0
4,57.67428941891243,12.49093043936618,4.441542672310931,-12.472743764755258,-4.368795973867245,0.01,0.04,0.0,130.0,130.0,130.0,0.0,0.0,-360.0,360.0
5,62.766873257037616,13.960147237777996,4.529493767755351,-13.84741673166394,-6.043451830292275,0.05,0.2,0.02,130.0,130.0,130.0,0.0,0.0,-360.0,360.0
6,93.89913313250236,20.648522594725474,7.463951398627408,-20.349722619551574,-8.514095820807976,0.06,0.18,0.02,65.0,65.0,65.0,0.0,0.0,-360.0,360.0
7,119.67675371056966,25.049262390523015,11.16105655545069,-24.97095398301497,-10.847822925418512,0.01,0.04,0.0,90.0,90.0,90.0,0.0,0.0,-360.0,360.0
8,66.10384912206241,13.847416351102893,6.22677985289751,-13.72472516159105,-6.882433661121341,0.05,0.12,0.01,70.0,70.0,70.0,0.0,0.0,-360.0,360.0
9,42.365374498523444,9.105733002565986,3.1578423002139324,-9.075275042702474,-4.017565867318418,0.03,0.08,0.01,130.0,130.0,130.0,0.0,0.0,-360.0,360.0
10,154.11282191607424,25.162721660133275,24.412994135368212,-25.032864369560194,-23.89356497307589,0.01,0.04,0.0,32.0,32.0,32.0,0.0,0.0,-360.0,360.0
11,32.92418855347145,6.662472617584584,-3.4221453055620246,-6.662472617584584,3.5466077272310246,0.0,0.21,0.0,65.0,65.0,65.0,0.0,0.0,-360.0,360.0
12,18.813821063281935,3.807127327298187,-1.9555108932978904,-3.807127327298187,2.063886324151595,0.0,0.56,0.0,32.0,32.0,32.0,0.0,0.0,-360.0,360.0
13,0.0,0.0,-0.0,0.0,-0.0,0.0,0.21,0.0,65.0,65.0,65.0,0.0,0.0,-360.0,360.0
14,32.92418362917364,6.662473272443707,-3.5466040946790045,-6.662473272443707,3.6117986770039967,0.0,0.11,0.0,65.0,65.0,65.0,0.0,0.0,-360.0,360.0
15,20.752823125423426,-4.482263991153242,-1.588415451698918,4.482263991153242,1.649638719857273,0.0,0.26,0.0,65.0,65.0,65.0,0.0,0.0,-360.0,360.0
16,166.63917592678303,-36.999999847823844,-10.091203549167734,36.999999847823844,12.216752180787783,0.0,0.14,0.0,65.0,65.0,65.0,0.0,0.0,-360.0,360.0
17,20.408559418765517,4.473413337883757,1.4317832610026782,-4.4460861628715485,-1.3725743818095602,0.12,0.26,0.0,32.0,32.0,32.0,0.0,0.0,-360.0,360.0
18,24.631571027073665,5.638774917080798,0.5833684553076083,-5.61555444436848,-0.5402447202704496,0.07,0.13,0.0,32.0,32.0,32.0,0.0,0.0,-360.0,360.0
19,48.91169523232496,11.205547347420085,-1.073576268785138,-11.087825591385014,1.3351801710852955,0.09,0.2,0.0,32.0,32.0,32.0,0.0,0.0,-360.0,360.0
20,7.757035098803206,-1.75391347761223,-0.2274249334187588,1.761151217739272,0.2340046971706153,0.22,0.2,0.0,16.0,16.0,16.0,0.0,0.0,-360.0,360.0
21,35.95708471713961,7.587826111604433,-3.1351796269814267,-7.531274143289543,3.2694905517292967,0.08,0.19,0.0,16.0,16.0,16.0,0.0,0.0,-360.0,360.0
22,49.75236976839815,11.392317498703974,-0.24786119976548202,-11.243446870842286,0.5456024554888599,0.11,0.22,0.0,16.0,16.0,16.0,0.0,0.0,-360.0,360.0
23,36.12009851249771,8.04344775823747,-1.445600993076556,-8.000648337186963,1.538333072019319,0.06,0.13,0.0,16.0,16.0,16.0,0.0,0.0,-360.0,360.0
24,22.880654626886358,-1.4993509979201156,-4.938332320545329,1.507938106171946,4.958368906466266,0.03,0.07,0.0,32.0,32.0,32.0,0.0,0.0,-360.0,360.0
25,29.867044644100464,3.751833234280887,5.760789521105661,-3.7079381584742026,-5.65836767755673,0.09,0.21,0.0,32.0,32.0,32.0,0.0,0.0,-360.0,360.0
26,40.2371845089765,1.4952817589759988,9.140306685227332,-1.468725602716221,-9.069490268534592,0.03,0.08,0.0,32.0,32.0,32.0,0.0,0.0,-360.0,360.0
27,57.40230942544572,1.1663120060591678,-13.161304566737396,-1.1122653564074063,13.287413415924842,0.03,0.07,0.0,32.0,32.0,32.0,0.0,0.0,-360.0,360.0
28,41.600411736037394,-1.7438243721647473,-9.415471432884246,1.810058540850771,9.557401794354297,0.07,0.15,0.0,32.0,32.0,32.0,0.0,0.0,-360.0,360.0
29,126.84704474319945,-16.38773350194892,-24.487413226679582,16.475706521514677,24.6633592658111,0.01,0.02,0.0,32.0,32.0,32.0,0.0,0.0,-360.0,360.0
30,69.23734597305905,-15.737905364595592,-1.9458867860263773,16.000006930577058,2.470089917989309,0.1,0.2,0.0,16.0,16.0,16.0,0.0,0.0,-360.0,360.0
31,37.83328232558853,3.3042346004336034,8.206186168530044,-3.2103232511608706,-8.065319144620947,0.12,0.18,0.0,16.0,16.0,16.0,0.0,0.0,-360.0,360.0
32,7.14024449388518,7.08533344024242,0.883822082231557,-7.01905542138023,-0.746167735363922,0.13,0.27,0.0,16.0,16.0,16.0,0.0,0.0,-360.0,360.0
33,24.69549655333397,-5.4896684751023,1.4038379669745111,5.553023040866808,-1.2938010895940482,0.19,0.33,0.0,16.0,16.0,16.0,0.0,0.0,-360.0,360.0
34,18.47767786294567,3.546668455062535,2.370936077181176,-3.499999982892206,-2.2999999994822775,0.25,0.38,0.0,16.0,16.0,16.0,0.0,0.0,-360.0,360.0
35,39.68784849629194,-9.09969312365668,-1.0771321072365596,9.19442509811041,1.2579840584664084,0.11,0.21,0.0,16.0,16.0,16.0,0.0,0.0,-360.0,360.0
36,33.54451361586863,-4.4192983258223455,-6.234034136950692,4.4192983258223455,6.4801228988583945,0.0,0.4,0.0,65.0,65.0,65.0,0.0,0.0,-360.0,360.0
37,27.368263226564835,6.1738820032971855,1.6840278133303936,-6.083785912230429,-1.5120261849302232,0.22,0.42,0.0,16.0,16.0,16.0,0.0,0.0,-360.0,360.0
38,31.290684235278427,7.122394950487242,1.6745629326654348,-6.951090403779457,-1.3533669075883354,0.32,0.6,0.0,16.0,16.0,16.0,0.0,0.0,-360.0,360.0
39,16.30291579221179,3.6837859122304115,0.6120261849302067,-3.6489095962205185,-0.5466330924116564,0.24,0.45,0.0,16.0,16.0,16.0,0.0,0.0,-360.0,360.0
40,35.055138258480454,-4.967135498079288,-6.106434948713756,5.000673938914631,4.346884214185544,0.06,0.2,0.02,32.0,32.0,32.0,0.0,0.0,-360.0,360.0
41,12.7063298243202,0.5826212066919408,-2.831255136655246,-0.5813746658114719,1.8871508995171205,0.02,0.06,0.01,32.0,32.0,32.0,0.0,0.0,-360.0,360.0
